Get the name of the MODPATH simulation file.
Read the first two records of the simulation file to get mpnamFile and mplistFile ...
Allocate rectangular unstructured grid component.
Allocate time discretization data component ...
Allocate disGrid.
Read grid file.

 ----------------------------------------------------------
 Cell connection data:
 ----------------------------------------------------------
 Format has two lines for each cell, listed by cell number.
 Line 1: Cell connections
 Line 1: Face assignment codes
 ----------------------------------------------------------
        1       2     208
        0   20101   30101

        2       1       3     209
        0   10101   20101   30101

        3       2       4     210
        0   10101   20101   30101

        4       3       5     211
        0   10101   20101   30101

        5       4       6     212
        0   10101   20101   30101

        6       5       7     213
        0   10101   20101   30101

        7       6       8     214
        0   10101   20101   30101

        8       7       9     215
        0   10101   20101   30101

        9       8      10     216
        0   10101   20101   30101

       10       9      11     217
        0   10101   20101   30101

       11      10      12     218
        0   10101   20101   30101

       12      11      13     219
        0   10101   20101   30101

       13      12      14     220
        0   10101   20101   30101

       14      13      15     221
        0   10101   20101   30101

       15      14      16     222
        0   10101   20101   30101

       16      15      17     223
        0   10101   20101   30101

       17      16      18     224
        0   10101   20101   30101

       18      17      19     225
        0   10101   20101   30101

       19      18      20     226
        0   10101   20101   30101

       20      19      21     227
        0   10101   20101   30101

       21      20      22     228
        0   10101   20101   30101

       22      21      23     229
        0   10101   20101   30101

       23      22      24     230
        0   10101   20101   30101

       24      23      25     231
        0   10101   20101   30101

       25      24      26     232
        0   10101   20101   30101

       26      25      27     233
        0   10101   20101   30101

       27      26      28     234
        0   10101   20101   30101

       28      27      29     235
        0   10101   20101   30101

       29      28      30     236
        0   10101   20101   30101

       30      29      31     237
        0   10101   20101   30101

       31      30      32     238
        0   10101   20101   30101

       32      31      33     239
        0   10101   20101   30101

       33      32      34     240
        0   10101   20101   30101

       34      33      35     241
        0   10101   20101   30101

       35      34      36     242
        0   10101   20101   30101

       36      35      37     243
        0   10101   20101   30101

       37      36      38     244
        0   10101   20101   30101

       38      37      39     245
        0   10101   20101   30101

       39      38      40     246
        0   10101   20101   30101

       40      39      41     247
        0   10101   20101   30101

       41      40      42     248
        0   10101   20101   30101

       42      41      43     249
        0   10101   20101   30101

       43      42      44     250
        0   10101   20101   30101

       44      43      45     251
        0   10101   20101   30101

       45      44      46     252
        0   10101   20101   30101

       46      45      47     253
        0   10101   20101   30101

       47      46      48     254
        0   10101   20101   30101

       48      47      49     255
        0   10101   20101   30101

       49      48      50     256
        0   10101   20101   30101

       50      49      51     257
        0   10101   20101   30101

       51      50      52     258
        0   10101   20101   30101

       52      51      53     259
        0   10101   20101   30101

       53      52      54     260
        0   10101   20101   30101

       54      53      55     261
        0   10101   20101   30101

       55      54      56     262
        0   10101   20101   30101

       56      55      57     263
        0   10101   20101   30101

       57      56      58     264
        0   10101   20101   30101

       58      57      59     265
        0   10101   20101   30101

       59      58      60     266
        0   10101   20101   30101

       60      59      61     267
        0   10101   20101   30101

       61      60      62     268
        0   10101   20101   30101

       62      61      63     269
        0   10101   20101   30101

       63      62      64     270
        0   10101   20101   30101

       64      63      65     271
        0   10101   20101   30101

       65      64      66     272
        0   10101   20101   30101

       66      65      67     273
        0   10101   20101   30101

       67      66      68     274
        0   10101   20101   30101

       68      67      69     275
        0   10101   20101   30101

       69      68      70     276
        0   10101   20101   30101

       70      69      71     277
        0   10101   20101   30101

       71      70      72     278
        0   10101   20101   30101

       72      71      73     279
        0   10101   20101   30101

       73      72      74     280
        0   10101   20101   30101

       74      73      75     281
        0   10101   20101   30101

       75      74      76     282
        0   10101   20101   30101

       76      75      77     283
        0   10101   20101   30101

       77      76      78     284
        0   10101   20101   30101

       78      77      79     285
        0   10101   20101   30101

       79      78      80     286
        0   10101   20101   30101

       80      79      81     287
        0   10101   20101   30101

       81      80      82     288
        0   10101   20101   30101

       82      81      83     289
        0   10101   20101   30101

       83      82      84     290
        0   10101   20101   30101

       84      83      85     291
        0   10101   20101   30101

       85      84      86     292
        0   10101   20101   30101

       86      85      87     293
        0   10101   20101   30101

       87      86      88     294
        0   10101   20101   30101

       88      87      89     295
        0   10101   20101   30101

       89      88      90     296
        0   10101   20101   30101

       90      89      91     297
        0   10101   20101   30101

       91      90      92     298
        0   10101   20101   30101

       92      91      93     299
        0   10101   20101   30101

       93      92      94     300
        0   10101   20101   30101

       94      93      95     301
        0   10101   20101   30101

       95      94      96     302
        0   10101   20101   30101

       96      95      97     303
        0   10101   20101   30101

       97      96      98     304
        0   10101   20101   30101

       98      97      99     305
        0   10101   20101   30101

       99      98     100     306
        0   10101   20101   30101

      100      99     101     307
        0   10101   20101   30101

      101     100     102     308
        0   10101   20101   30101

      102     101     103     309
        0   10101   20101   30101

      103     102     104     310
        0   10101   20101   30101

      104     103     105     311
        0   10101   20101   30101

      105     104     106     312
        0   10101   20101   30101

      106     105     107     313
        0   10101   20101   30101

      107     106     108     314
        0   10101   20101   30101

      108     107     109     315
        0   10101   20101   30101

      109     108     110     316
        0   10101   20101   30101

      110     109     111     317
        0   10101   20101   30101

      111     110     112     318
        0   10101   20101   30101

      112     111     113     319
        0   10101   20101   30101

      113     112     114     320
        0   10101   20101   30101

      114     113     115     321
        0   10101   20101   30101

      115     114     116     322
        0   10101   20101   30101

      116     115     117     323
        0   10101   20101   30101

      117     116     118     324
        0   10101   20101   30101

      118     117     119     325
        0   10101   20101   30101

      119     118     120     326
        0   10101   20101   30101

      120     119     121     327
        0   10101   20101   30101

      121     120     122     328
        0   10101   20101   30101

      122     121     123     329
        0   10101   20101   30101

      123     122     124     330
        0   10101   20101   30101

      124     123     125     331
        0   10101   20101   30101

      125     124     126     332
        0   10101   20101   30101

      126     125     127     333
        0   10101   20101   30101

      127     126     128     334
        0   10101   20101   30101

      128     127     129     335
        0   10101   20101   30101

      129     128     130     336
        0   10101   20101   30101

      130     129     131     337
        0   10101   20101   30101

      131     130     132     338
        0   10101   20101   30101

      132     131     133     339
        0   10101   20101   30101

      133     132     134     340
        0   10101   20101   30101

      134     133     135     341
        0   10101   20101   30101

      135     134     136     342
        0   10101   20101   30101

      136     135     137     343
        0   10101   20101   30101

      137     136     138     344
        0   10101   20101   30101

      138     137     139     345
        0   10101   20101   30101

      139     138     140     346
        0   10101   20101   30101

      140     139     141     347
        0   10101   20101   30101

      141     140     142     348
        0   10101   20101   30101

      142     141     143     349
        0   10101   20101   30101

      143     142     144     350
        0   10101   20101   30101

      144     143     145     351
        0   10101   20101   30101

      145     144     146     352
        0   10101   20101   30101

      146     145     147     353
        0   10101   20101   30101

      147     146     148     354
        0   10101   20101   30101

      148     147     149     355
        0   10101   20101   30101

      149     148     150     356
        0   10101   20101   30101

      150     149     151     357
        0   10101   20101   30101

      151     150     152     358
        0   10101   20101   30101

      152     151     153     359
        0   10101   20101   30101

      153     152     154     360
        0   10101   20101   30101

      154     153     155     361
        0   10101   20101   30101

      155     154     156     362
        0   10101   20101   30101

      156     155     157     363
        0   10101   20101   30101

      157     156     158     364
        0   10101   20101   30101

      158     157     159     365
        0   10101   20101   30101

      159     158     160     366
        0   10101   20101   30101

      160     159     161     367
        0   10101   20101   30101

      161     160     162     368
        0   10101   20101   30101

      162     161     163     369
        0   10101   20101   30101

      163     162     164     370
        0   10101   20101   30101

      164     163     165     371
        0   10101   20101   30101

      165     164     166     372
        0   10101   20101   30101

      166     165     167     373
        0   10101   20101   30101

      167     166     168     374
        0   10101   20101   30101

      168     167     169     375
        0   10101   20101   30101

      169     168     170     376
        0   10101   20101   30101

      170     169     171     377
        0   10101   20101   30101

      171     170     172     378
        0   10101   20101   30101

      172     171     173     379
        0   10101   20101   30101

      173     172     174     380
        0   10101   20101   30101

      174     173     175     381
        0   10101   20101   30101

      175     174     176     382
        0   10101   20101   30101

      176     175     177     383
        0   10101   20101   30101

      177     176     178     384
        0   10101   20101   30101

      178     177     179     385
        0   10101   20101   30101

      179     178     180     386
        0   10101   20101   30101

      180     179     181     387
        0   10101   20101   30101

      181     180     182     388
        0   10101   20101   30101

      182     181     183     389
        0   10101   20101   30101

      183     182     184     390
        0   10101   20101   30101

      184     183     185     391
        0   10101   20101   30101

      185     184     186     392
        0   10101   20101   30101

      186     185     187     393
        0   10101   20101   30101

      187     186     188     394
        0   10101   20101   30101

      188     187     189     395
        0   10101   20101   30101

      189     188     190     396
        0   10101   20101   30101

      190     189     191     397
        0   10101   20101   30101

      191     190     192     398
        0   10101   20101   30101

      192     191     193     399
        0   10101   20101   30101

      193     192     194     400
        0   10101   20101   30101

      194     193     195     401
        0   10101   20101   30101

      195     194     196     402
        0   10101   20101   30101

      196     195     197     403
        0   10101   20101   30101

      197     196     198     404
        0   10101   20101   30101

      198     197     199     405
        0   10101   20101   30101

      199     198     200     406
        0   10101   20101   30101

      200     199     201     407
        0   10101   20101   30101

      201     200     202     408
        0   10101   20101   30101

      202     201     203     409
        0   10101   20101   30101

      203     202     204     410
        0   10101   20101   30101

      204     203     205     411
        0   10101   20101   30101

      205     204     206     412
        0   10101   20101   30101

      206     205     207     413
        0   10101   20101   30101

      207     206     414
        0   10101   30101

      208       1     209     415
        0   40101   20101   30101

      209       2     208     210     416
        0   40101   10101   20101   30101

      210       3     209     211     417
        0   40101   10101   20101   30101

      211       4     210     212     418
        0   40101   10101   20101   30101

      212       5     211     213     419
        0   40101   10101   20101   30101

      213       6     212     214     420
        0   40101   10101   20101   30101

      214       7     213     215     421
        0   40101   10101   20101   30101

      215       8     214     216     422
        0   40101   10101   20101   30101

      216       9     215     217     423
        0   40101   10101   20101   30101

      217      10     216     218     424
        0   40101   10101   20101   30101

      218      11     217     219     425
        0   40101   10101   20101   30101

      219      12     218     220     426
        0   40101   10101   20101   30101

      220      13     219     221     427
        0   40101   10101   20101   30101

      221      14     220     222     428
        0   40101   10101   20101   30101

      222      15     221     223     429
        0   40101   10101   20101   30101

      223      16     222     224     430
        0   40101   10101   20101   30101

      224      17     223     225     431
        0   40101   10101   20101   30101

      225      18     224     226     432
        0   40101   10101   20101   30101

      226      19     225     227     433
        0   40101   10101   20101   30101

      227      20     226     228     434
        0   40101   10101   20101   30101

      228      21     227     229     435
        0   40101   10101   20101   30101

      229      22     228     230     436
        0   40101   10101   20101   30101

      230      23     229     231     437
        0   40101   10101   20101   30101

      231      24     230     232     438
        0   40101   10101   20101   30101

      232      25     231     233     439
        0   40101   10101   20101   30101

      233      26     232     234     440
        0   40101   10101   20101   30101

      234      27     233     235     441
        0   40101   10101   20101   30101

      235      28     234     236     442
        0   40101   10101   20101   30101

      236      29     235     237     443
        0   40101   10101   20101   30101

      237      30     236     238     444
        0   40101   10101   20101   30101

      238      31     237     239     445
        0   40101   10101   20101   30101

      239      32     238     240     446
        0   40101   10101   20101   30101

      240      33     239     241     447
        0   40101   10101   20101   30101

      241      34     240     242     448
        0   40101   10101   20101   30101

      242      35     241     243     449
        0   40101   10101   20101   30101

      243      36     242     244     450
        0   40101   10101   20101   30101

      244      37     243     245     451
        0   40101   10101   20101   30101

      245      38     244     246     452
        0   40101   10101   20101   30101

      246      39     245     247     453
        0   40101   10101   20101   30101

      247      40     246     248     454
        0   40101   10101   20101   30101

      248      41     247     249     455
        0   40101   10101   20101   30101

      249      42     248     250     456
        0   40101   10101   20101   30101

      250      43     249     251     457
        0   40101   10101   20101   30101

      251      44     250     252     458
        0   40101   10101   20101   30101

      252      45     251     253     459
        0   40101   10101   20101   30101

      253      46     252     254     460
        0   40101   10101   20101   30101

      254      47     253     255     461
        0   40101   10101   20101   30101

      255      48     254     256     462
        0   40101   10101   20101   30101

      256      49     255     257     463
        0   40101   10101   20101   30101

      257      50     256     258     464
        0   40101   10101   20101   30101

      258      51     257     259     465
        0   40101   10101   20101   30101

      259      52     258     260     466
        0   40101   10101   20101   30101

      260      53     259     261     467
        0   40101   10101   20101   30101

      261      54     260     262     468
        0   40101   10101   20101   30101

      262      55     261     263     469
        0   40101   10101   20101   30101

      263      56     262     264     470
        0   40101   10101   20101   30101

      264      57     263     265     471
        0   40101   10101   20101   30101

      265      58     264     266     472
        0   40101   10101   20101   30101

      266      59     265     267     473
        0   40101   10101   20101   30101

      267      60     266     268     474
        0   40101   10101   20101   30101

      268      61     267     269     475
        0   40101   10101   20101   30101

      269      62     268     270     476
        0   40101   10101   20101   30101

      270      63     269     271     477
        0   40101   10101   20101   30101

      271      64     270     272     478
        0   40101   10101   20101   30101

      272      65     271     273     479
        0   40101   10101   20101   30101

      273      66     272     274     480
        0   40101   10101   20101   30101

      274      67     273     275     481
        0   40101   10101   20101   30101

      275      68     274     276     482
        0   40101   10101   20101   30101

      276      69     275     277     483
        0   40101   10101   20101   30101

      277      70     276     278     484
        0   40101   10101   20101   30101

      278      71     277     279     485
        0   40101   10101   20101   30101

      279      72     278     280     486
        0   40101   10101   20101   30101

      280      73     279     281     487
        0   40101   10101   20101   30101

      281      74     280     282     488
        0   40101   10101   20101   30101

      282      75     281     283     489
        0   40101   10101   20101   30101

      283      76     282     284     490
        0   40101   10101   20101   30101

      284      77     283     285     491
        0   40101   10101   20101   30101

      285      78     284     286     492
        0   40101   10101   20101   30101

      286      79     285     287     493
        0   40101   10101   20101   30101

      287      80     286     288     494
        0   40101   10101   20101   30101

      288      81     287     289     495
        0   40101   10101   20101   30101

      289      82     288     290     496
        0   40101   10101   20101   30101

      290      83     289     291     497
        0   40101   10101   20101   30101

      291      84     290     292     498
        0   40101   10101   20101   30101

      292      85     291     293     499
        0   40101   10101   20101   30101

      293      86     292     294     500
        0   40101   10101   20101   30101

      294      87     293     295     501
        0   40101   10101   20101   30101

      295      88     294     296     502
        0   40101   10101   20101   30101

      296      89     295     297     503
        0   40101   10101   20101   30101

      297      90     296     298     504
        0   40101   10101   20101   30101

      298      91     297     299     505
        0   40101   10101   20101   30101

      299      92     298     300     506
        0   40101   10101   20101   30101

      300      93     299     301     507
        0   40101   10101   20101   30101

      301      94     300     302     508
        0   40101   10101   20101   30101

      302      95     301     303     509
        0   40101   10101   20101   30101

      303      96     302     304     510
        0   40101   10101   20101   30101

      304      97     303     305     511
        0   40101   10101   20101   30101

      305      98     304     306     512
        0   40101   10101   20101   30101

      306      99     305     307     513
        0   40101   10101   20101   30101

      307     100     306     308     514
        0   40101   10101   20101   30101

      308     101     307     309     515
        0   40101   10101   20101   30101

      309     102     308     310     516
        0   40101   10101   20101   30101

      310     103     309     311     517
        0   40101   10101   20101   30101

      311     104     310     312     518
        0   40101   10101   20101   30101

      312     105     311     313     519
        0   40101   10101   20101   30101

      313     106     312     314     520
        0   40101   10101   20101   30101

      314     107     313     315     521
        0   40101   10101   20101   30101

      315     108     314     316     522
        0   40101   10101   20101   30101

      316     109     315     317     523
        0   40101   10101   20101   30101

      317     110     316     318     524
        0   40101   10101   20101   30101

      318     111     317     319     525
        0   40101   10101   20101   30101

      319     112     318     320     526
        0   40101   10101   20101   30101

      320     113     319     321     527
        0   40101   10101   20101   30101

      321     114     320     322     528
        0   40101   10101   20101   30101

      322     115     321     323     529
        0   40101   10101   20101   30101

      323     116     322     324     530
        0   40101   10101   20101   30101

      324     117     323     325     531
        0   40101   10101   20101   30101

      325     118     324     326     532
        0   40101   10101   20101   30101

      326     119     325     327     533
        0   40101   10101   20101   30101

      327     120     326     328     534
        0   40101   10101   20101   30101

      328     121     327     329     535
        0   40101   10101   20101   30101

      329     122     328     330     536
        0   40101   10101   20101   30101

      330     123     329     331     537
        0   40101   10101   20101   30101

      331     124     330     332     538
        0   40101   10101   20101   30101

      332     125     331     333     539
        0   40101   10101   20101   30101

      333     126     332     334     540
        0   40101   10101   20101   30101

      334     127     333     335     541
        0   40101   10101   20101   30101

      335     128     334     336     542
        0   40101   10101   20101   30101

      336     129     335     337     543
        0   40101   10101   20101   30101

      337     130     336     338     544
        0   40101   10101   20101   30101

      338     131     337     339     545
        0   40101   10101   20101   30101

      339     132     338     340     546
        0   40101   10101   20101   30101

      340     133     339     341     547
        0   40101   10101   20101   30101

      341     134     340     342     548
        0   40101   10101   20101   30101

      342     135     341     343     549
        0   40101   10101   20101   30101

      343     136     342     344     550
        0   40101   10101   20101   30101

      344     137     343     345     551
        0   40101   10101   20101   30101

      345     138     344     346     552
        0   40101   10101   20101   30101

      346     139     345     347     553
        0   40101   10101   20101   30101

      347     140     346     348     554
        0   40101   10101   20101   30101

      348     141     347     349     555
        0   40101   10101   20101   30101

      349     142     348     350     556
        0   40101   10101   20101   30101

      350     143     349     351     557
        0   40101   10101   20101   30101

      351     144     350     352     558
        0   40101   10101   20101   30101

      352     145     351     353     559
        0   40101   10101   20101   30101

      353     146     352     354     560
        0   40101   10101   20101   30101

      354     147     353     355     561
        0   40101   10101   20101   30101

      355     148     354     356     562
        0   40101   10101   20101   30101

      356     149     355     357     563
        0   40101   10101   20101   30101

      357     150     356     358     564
        0   40101   10101   20101   30101

      358     151     357     359     565
        0   40101   10101   20101   30101

      359     152     358     360     566
        0   40101   10101   20101   30101

      360     153     359     361     567
        0   40101   10101   20101   30101

      361     154     360     362     568
        0   40101   10101   20101   30101

      362     155     361     363     569
        0   40101   10101   20101   30101

      363     156     362     364     570
        0   40101   10101   20101   30101

      364     157     363     365     571
        0   40101   10101   20101   30101

      365     158     364     366     572
        0   40101   10101   20101   30101

      366     159     365     367     573
        0   40101   10101   20101   30101

      367     160     366     368     574
        0   40101   10101   20101   30101

      368     161     367     369     575
        0   40101   10101   20101   30101

      369     162     368     370     576
        0   40101   10101   20101   30101

      370     163     369     371     577
        0   40101   10101   20101   30101

      371     164     370     372     578
        0   40101   10101   20101   30101

      372     165     371     373     579
        0   40101   10101   20101   30101

      373     166     372     374     580
        0   40101   10101   20101   30101

      374     167     373     375     581
        0   40101   10101   20101   30101

      375     168     374     376     582
        0   40101   10101   20101   30101

      376     169     375     377     583
        0   40101   10101   20101   30101

      377     170     376     378     584
        0   40101   10101   20101   30101

      378     171     377     379     585
        0   40101   10101   20101   30101

      379     172     378     380     586
        0   40101   10101   20101   30101

      380     173     379     381     587
        0   40101   10101   20101   30101

      381     174     380     382     588
        0   40101   10101   20101   30101

      382     175     381     383     589
        0   40101   10101   20101   30101

      383     176     382     384     590
        0   40101   10101   20101   30101

      384     177     383     385     591
        0   40101   10101   20101   30101

      385     178     384     386     592
        0   40101   10101   20101   30101

      386     179     385     387     593
        0   40101   10101   20101   30101

      387     180     386     388     594
        0   40101   10101   20101   30101

      388     181     387     389     595
        0   40101   10101   20101   30101

      389     182     388     390     596
        0   40101   10101   20101   30101

      390     183     389     391     597
        0   40101   10101   20101   30101

      391     184     390     392     598
        0   40101   10101   20101   30101

      392     185     391     393     599
        0   40101   10101   20101   30101

      393     186     392     394     600
        0   40101   10101   20101   30101

      394     187     393     395     601
        0   40101   10101   20101   30101

      395     188     394     396     602
        0   40101   10101   20101   30101

      396     189     395     397     603
        0   40101   10101   20101   30101

      397     190     396     398     604
        0   40101   10101   20101   30101

      398     191     397     399     605
        0   40101   10101   20101   30101

      399     192     398     400     606
        0   40101   10101   20101   30101

      400     193     399     401     607
        0   40101   10101   20101   30101

      401     194     400     402     608
        0   40101   10101   20101   30101

      402     195     401     403     609
        0   40101   10101   20101   30101

      403     196     402     404     610
        0   40101   10101   20101   30101

      404     197     403     405     611
        0   40101   10101   20101   30101

      405     198     404     406     612
        0   40101   10101   20101   30101

      406     199     405     407     613
        0   40101   10101   20101   30101

      407     200     406     408     614
        0   40101   10101   20101   30101

      408     201     407     409     615
        0   40101   10101   20101   30101

      409     202     408     410     616
        0   40101   10101   20101   30101

      410     203     409     411     617
        0   40101   10101   20101   30101

      411     204     410     412     618
        0   40101   10101   20101   30101

      412     205     411     413     619
        0   40101   10101   20101   30101

      413     206     412     414     620
        0   40101   10101   20101   30101

      414     207     413     621
        0   40101   10101   30101

      415     208     416     622
        0   40101   20101   30101

      416     209     415     417     623
        0   40101   10101   20101   30101

      417     210     416     418     624
        0   40101   10101   20101   30101

      418     211     417     419     625
        0   40101   10101   20101   30101

      419     212     418     420     626
        0   40101   10101   20101   30101

      420     213     419     421     627
        0   40101   10101   20101   30101

      421     214     420     422     628
        0   40101   10101   20101   30101

      422     215     421     423     629
        0   40101   10101   20101   30101

      423     216     422     424     630
        0   40101   10101   20101   30101

      424     217     423     425     631
        0   40101   10101   20101   30101

      425     218     424     426     632
        0   40101   10101   20101   30101

      426     219     425     427     633
        0   40101   10101   20101   30101

      427     220     426     428     634
        0   40101   10101   20101   30101

      428     221     427     429     635
        0   40101   10101   20101   30101

      429     222     428     430     636
        0   40101   10101   20101   30101

      430     223     429     431     637
        0   40101   10101   20101   30101

      431     224     430     432     638
        0   40101   10101   20101   30101

      432     225     431     433     639
        0   40101   10101   20101   30101

      433     226     432     434     640
        0   40101   10101   20101   30101

      434     227     433     435     641
        0   40101   10101   20101   30101

      435     228     434     436     642
        0   40101   10101   20101   30101

      436     229     435     437     643
        0   40101   10101   20101   30101

      437     230     436     438     644
        0   40101   10101   20101   30101

      438     231     437     439     645
        0   40101   10101   20101   30101

      439     232     438     440     646
        0   40101   10101   20101   30101

      440     233     439     441     647
        0   40101   10101   20101   30101

      441     234     440     442     648
        0   40101   10101   20101   30101

      442     235     441     443     649
        0   40101   10101   20101   30101

      443     236     442     444     650
        0   40101   10101   20101   30101

      444     237     443     445     651
        0   40101   10101   20101   30101

      445     238     444     446     652
        0   40101   10101   20101   30101

      446     239     445     447     653
        0   40101   10101   20101   30101

      447     240     446     448     654
        0   40101   10101   20101   30101

      448     241     447     449     655
        0   40101   10101   20101   30101

      449     242     448     450     656
        0   40101   10101   20101   30101

      450     243     449     451     657
        0   40101   10101   20101   30101

      451     244     450     452     658
        0   40101   10101   20101   30101

      452     245     451     453     659
        0   40101   10101   20101   30101

      453     246     452     454     660
        0   40101   10101   20101   30101

      454     247     453     455     661
        0   40101   10101   20101   30101

      455     248     454     456     662
        0   40101   10101   20101   30101

      456     249     455     457     663
        0   40101   10101   20101   30101

      457     250     456     458     664
        0   40101   10101   20101   30101

      458     251     457     459     665
        0   40101   10101   20101   30101

      459     252     458     460     666
        0   40101   10101   20101   30101

      460     253     459     461     667
        0   40101   10101   20101   30101

      461     254     460     462     668
        0   40101   10101   20101   30101

      462     255     461     463     669
        0   40101   10101   20101   30101

      463     256     462     464     670
        0   40101   10101   20101   30101

      464     257     463     465     671
        0   40101   10101   20101   30101

      465     258     464     466     672
        0   40101   10101   20101   30101

      466     259     465     467     673
        0   40101   10101   20101   30101

      467     260     466     468     674
        0   40101   10101   20101   30101

      468     261     467     469     675
        0   40101   10101   20101   30101

      469     262     468     470     676
        0   40101   10101   20101   30101

      470     263     469     471     677
        0   40101   10101   20101   30101

      471     264     470     472     678
        0   40101   10101   20101   30101

      472     265     471     473     679
        0   40101   10101   20101   30101

      473     266     472     474     680
        0   40101   10101   20101   30101

      474     267     473     475     681
        0   40101   10101   20101   30101

      475     268     474     476     682
        0   40101   10101   20101   30101

      476     269     475     477     683
        0   40101   10101   20101   30101

      477     270     476     478     684
        0   40101   10101   20101   30101

      478     271     477     479     685
        0   40101   10101   20101   30101

      479     272     478     480     686
        0   40101   10101   20101   30101

      480     273     479     481     687
        0   40101   10101   20101   30101

      481     274     480     482     688
        0   40101   10101   20101   30101

      482     275     481     483     689
        0   40101   10101   20101   30101

      483     276     482     484     690
        0   40101   10101   20101   30101

      484     277     483     485     691
        0   40101   10101   20101   30101

      485     278     484     486     692
        0   40101   10101   20101   30101

      486     279     485     487     693
        0   40101   10101   20101   30101

      487     280     486     488     694
        0   40101   10101   20101   30101

      488     281     487     489     695
        0   40101   10101   20101   30101

      489     282     488     490     696
        0   40101   10101   20101   30101

      490     283     489     491     697
        0   40101   10101   20101   30101

      491     284     490     492     698
        0   40101   10101   20101   30101

      492     285     491     493     699
        0   40101   10101   20101   30101

      493     286     492     494     700
        0   40101   10101   20101   30101

      494     287     493     495     701
        0   40101   10101   20101   30101

      495     288     494     496     702
        0   40101   10101   20101   30101

      496     289     495     497     703
        0   40101   10101   20101   30101

      497     290     496     498     704
        0   40101   10101   20101   30101

      498     291     497     499     705
        0   40101   10101   20101   30101

      499     292     498     500     706
        0   40101   10101   20101   30101

      500     293     499     501     707
        0   40101   10101   20101   30101

      501     294     500     502     708
        0   40101   10101   20101   30101

      502     295     501     503     709
        0   40101   10101   20101   30101

      503     296     502     504     710
        0   40101   10101   20101   30101

      504     297     503     505     711
        0   40101   10101   20101   30101

      505     298     504     506     712
        0   40101   10101   20101   30101

      506     299     505     507     713
        0   40101   10101   20101   30101

      507     300     506     508     714
        0   40101   10101   20101   30101

      508     301     507     509     715
        0   40101   10101   20101   30101

      509     302     508     510     716
        0   40101   10101   20101   30101

      510     303     509     511     717
        0   40101   10101   20101   30101

      511     304     510     512     718
        0   40101   10101   20101   30101

      512     305     511     513     719
        0   40101   10101   20101   30101

      513     306     512     514     720
        0   40101   10101   20101   30101

      514     307     513     515     721
        0   40101   10101   20101   30101

      515     308     514     516     722
        0   40101   10101   20101   30101

      516     309     515     517     723
        0   40101   10101   20101   30101

      517     310     516     518     724
        0   40101   10101   20101   30101

      518     311     517     519     725
        0   40101   10101   20101   30101

      519     312     518     520     726
        0   40101   10101   20101   30101

      520     313     519     521     727
        0   40101   10101   20101   30101

      521     314     520     522     728
        0   40101   10101   20101   30101

      522     315     521     523     729
        0   40101   10101   20101   30101

      523     316     522     524     730
        0   40101   10101   20101   30101

      524     317     523     525     731
        0   40101   10101   20101   30101

      525     318     524     526     732
        0   40101   10101   20101   30101

      526     319     525     527     733
        0   40101   10101   20101   30101

      527     320     526     528     734
        0   40101   10101   20101   30101

      528     321     527     529     735
        0   40101   10101   20101   30101

      529     322     528     530     736
        0   40101   10101   20101   30101

      530     323     529     531     737
        0   40101   10101   20101   30101

      531     324     530     532     738
        0   40101   10101   20101   30101

      532     325     531     533     739
        0   40101   10101   20101   30101

      533     326     532     534     740
        0   40101   10101   20101   30101

      534     327     533     535     741
        0   40101   10101   20101   30101

      535     328     534     536     742
        0   40101   10101   20101   30101

      536     329     535     537     743
        0   40101   10101   20101   30101

      537     330     536     538     744
        0   40101   10101   20101   30101

      538     331     537     539     745
        0   40101   10101   20101   30101

      539     332     538     540     746
        0   40101   10101   20101   30101

      540     333     539     541     747
        0   40101   10101   20101   30101

      541     334     540     542     748
        0   40101   10101   20101   30101

      542     335     541     543     749
        0   40101   10101   20101   30101

      543     336     542     544     750
        0   40101   10101   20101   30101

      544     337     543     545     751
        0   40101   10101   20101   30101

      545     338     544     546     752
        0   40101   10101   20101   30101

      546     339     545     547     753
        0   40101   10101   20101   30101

      547     340     546     548     754
        0   40101   10101   20101   30101

      548     341     547     549     755
        0   40101   10101   20101   30101

      549     342     548     550     756
        0   40101   10101   20101   30101

      550     343     549     551     757
        0   40101   10101   20101   30101

      551     344     550     552     758
        0   40101   10101   20101   30101

      552     345     551     553     759
        0   40101   10101   20101   30101

      553     346     552     554     760
        0   40101   10101   20101   30101

      554     347     553     555     761
        0   40101   10101   20101   30101

      555     348     554     556     762
        0   40101   10101   20101   30101

      556     349     555     557     763
        0   40101   10101   20101   30101

      557     350     556     558     764
        0   40101   10101   20101   30101

      558     351     557     559     765
        0   40101   10101   20101   30101

      559     352     558     560     766
        0   40101   10101   20101   30101

      560     353     559     561     767
        0   40101   10101   20101   30101

      561     354     560     562     768
        0   40101   10101   20101   30101

      562     355     561     563     769
        0   40101   10101   20101   30101

      563     356     562     564     770
        0   40101   10101   20101   30101

      564     357     563     565     771
        0   40101   10101   20101   30101

      565     358     564     566     772
        0   40101   10101   20101   30101

      566     359     565     567     773
        0   40101   10101   20101   30101

      567     360     566     568     774
        0   40101   10101   20101   30101

      568     361     567     569     775
        0   40101   10101   20101   30101

      569     362     568     570     776
        0   40101   10101   20101   30101

      570     363     569     571     777
        0   40101   10101   20101   30101

      571     364     570     572     778
        0   40101   10101   20101   30101

      572     365     571     573     779
        0   40101   10101   20101   30101

      573     366     572     574     780
        0   40101   10101   20101   30101

      574     367     573     575     781
        0   40101   10101   20101   30101

      575     368     574     576     782
        0   40101   10101   20101   30101

      576     369     575     577     783
        0   40101   10101   20101   30101

      577     370     576     578     784
        0   40101   10101   20101   30101

      578     371     577     579     785
        0   40101   10101   20101   30101

      579     372     578     580     786
        0   40101   10101   20101   30101

      580     373     579     581     787
        0   40101   10101   20101   30101

      581     374     580     582     788
        0   40101   10101   20101   30101

      582     375     581     583     789
        0   40101   10101   20101   30101

      583     376     582     584     790
        0   40101   10101   20101   30101

      584     377     583     585     791
        0   40101   10101   20101   30101

      585     378     584     586     792
        0   40101   10101   20101   30101

      586     379     585     587     793
        0   40101   10101   20101   30101

      587     380     586     588     794
        0   40101   10101   20101   30101

      588     381     587     589     795
        0   40101   10101   20101   30101

      589     382     588     590     796
        0   40101   10101   20101   30101

      590     383     589     591     797
        0   40101   10101   20101   30101

      591     384     590     592     798
        0   40101   10101   20101   30101

      592     385     591     593     799
        0   40101   10101   20101   30101

      593     386     592     594     800
        0   40101   10101   20101   30101

      594     387     593     595     801
        0   40101   10101   20101   30101

      595     388     594     596     802
        0   40101   10101   20101   30101

      596     389     595     597     803
        0   40101   10101   20101   30101

      597     390     596     598     804
        0   40101   10101   20101   30101

      598     391     597     599     805
        0   40101   10101   20101   30101

      599     392     598     600     806
        0   40101   10101   20101   30101

      600     393     599     601     807
        0   40101   10101   20101   30101

      601     394     600     602     808
        0   40101   10101   20101   30101

      602     395     601     603     809
        0   40101   10101   20101   30101

      603     396     602     604     810
        0   40101   10101   20101   30101

      604     397     603     605     811
        0   40101   10101   20101   30101

      605     398     604     606     812
        0   40101   10101   20101   30101

      606     399     605     607     813
        0   40101   10101   20101   30101

      607     400     606     608     814
        0   40101   10101   20101   30101

      608     401     607     609     815
        0   40101   10101   20101   30101

      609     402     608     610     816
        0   40101   10101   20101   30101

      610     403     609     611     817
        0   40101   10101   20101   30101

      611     404     610     612     818
        0   40101   10101   20101   30101

      612     405     611     613     819
        0   40101   10101   20101   30101

      613     406     612     614     820
        0   40101   10101   20101   30101

      614     407     613     615     821
        0   40101   10101   20101   30101

      615     408     614     616     822
        0   40101   10101   20101   30101

      616     409     615     617     823
        0   40101   10101   20101   30101

      617     410     616     618     824
        0   40101   10101   20101   30101

      618     411     617     619     825
        0   40101   10101   20101   30101

      619     412     618     620     826
        0   40101   10101   20101   30101

      620     413     619     621     827
        0   40101   10101   20101   30101

      621     414     620     828
        0   40101   10101   30101

      622     415     623     829
        0   40101   20101   30101

      623     416     622     624     830
        0   40101   10101   20101   30101

      624     417     623     625     831
        0   40101   10101   20101   30101

      625     418     624     626     832
        0   40101   10101   20101   30101

      626     419     625     627     833
        0   40101   10101   20101   30101

      627     420     626     628     834
        0   40101   10101   20101   30101

      628     421     627     629     835
        0   40101   10101   20101   30101

      629     422     628     630     836
        0   40101   10101   20101   30101

      630     423     629     631     837
        0   40101   10101   20101   30101

      631     424     630     632     838
        0   40101   10101   20101   30101

      632     425     631     633     839
        0   40101   10101   20101   30101

      633     426     632     634     840
        0   40101   10101   20101   30101

      634     427     633     635     841
        0   40101   10101   20101   30101

      635     428     634     636     842
        0   40101   10101   20101   30101

      636     429     635     637     843
        0   40101   10101   20101   30101

      637     430     636     638     844
        0   40101   10101   20101   30101

      638     431     637     639     845
        0   40101   10101   20101   30101

      639     432     638     640     846
        0   40101   10101   20101   30101

      640     433     639     641     847
        0   40101   10101   20101   30101

      641     434     640     642     848
        0   40101   10101   20101   30101

      642     435     641     643     849
        0   40101   10101   20101   30101

      643     436     642     644     850
        0   40101   10101   20101   30101

      644     437     643     645     851
        0   40101   10101   20101   30101

      645     438     644     646     852
        0   40101   10101   20101   30101

      646     439     645     647     853
        0   40101   10101   20101   30101

      647     440     646     648     854
        0   40101   10101   20101   30101

      648     441     647     649     855
        0   40101   10101   20101   30101

      649     442     648     650     856
        0   40101   10101   20101   30101

      650     443     649     651     857
        0   40101   10101   20101   30101

      651     444     650     652     858
        0   40101   10101   20101   30101

      652     445     651     653     859
        0   40101   10101   20101   30101

      653     446     652     654     860
        0   40101   10101   20101   30101

      654     447     653     655     861
        0   40101   10101   20101   30101

      655     448     654     656     862
        0   40101   10101   20101   30101

      656     449     655     657     863
        0   40101   10101   20101   30101

      657     450     656     658     864
        0   40101   10101   20101   30101

      658     451     657     659     865
        0   40101   10101   20101   30101

      659     452     658     660     866
        0   40101   10101   20101   30101

      660     453     659     661     867
        0   40101   10101   20101   30101

      661     454     660     662     868
        0   40101   10101   20101   30101

      662     455     661     663     869
        0   40101   10101   20101   30101

      663     456     662     664     870
        0   40101   10101   20101   30101

      664     457     663     665     871
        0   40101   10101   20101   30101

      665     458     664     666     872
        0   40101   10101   20101   30101

      666     459     665     667     873
        0   40101   10101   20101   30101

      667     460     666     668     874
        0   40101   10101   20101   30101

      668     461     667     669     875
        0   40101   10101   20101   30101

      669     462     668     670     876
        0   40101   10101   20101   30101

      670     463     669     671     877
        0   40101   10101   20101   30101

      671     464     670     672     878
        0   40101   10101   20101   30101

      672     465     671     673     879
        0   40101   10101   20101   30101

      673     466     672     674     880
        0   40101   10101   20101   30101

      674     467     673     675     881
        0   40101   10101   20101   30101

      675     468     674     676     882
        0   40101   10101   20101   30101

      676     469     675     677     883
        0   40101   10101   20101   30101

      677     470     676     678     884
        0   40101   10101   20101   30101

      678     471     677     679     885
        0   40101   10101   20101   30101

      679     472     678     680     886
        0   40101   10101   20101   30101

      680     473     679     681     887
        0   40101   10101   20101   30101

      681     474     680     682     888
        0   40101   10101   20101   30101

      682     475     681     683     889
        0   40101   10101   20101   30101

      683     476     682     684     890
        0   40101   10101   20101   30101

      684     477     683     685     891
        0   40101   10101   20101   30101

      685     478     684     686     892
        0   40101   10101   20101   30101

      686     479     685     687     893
        0   40101   10101   20101   30101

      687     480     686     688     894
        0   40101   10101   20101   30101

      688     481     687     689     895
        0   40101   10101   20101   30101

      689     482     688     690     896
        0   40101   10101   20101   30101

      690     483     689     691     897
        0   40101   10101   20101   30101

      691     484     690     692     898
        0   40101   10101   20101   30101

      692     485     691     693     899
        0   40101   10101   20101   30101

      693     486     692     694     900
        0   40101   10101   20101   30101

      694     487     693     695     901
        0   40101   10101   20101   30101

      695     488     694     696     902
        0   40101   10101   20101   30101

      696     489     695     697     903
        0   40101   10101   20101   30101

      697     490     696     698     904
        0   40101   10101   20101   30101

      698     491     697     699     905
        0   40101   10101   20101   30101

      699     492     698     700     906
        0   40101   10101   20101   30101

      700     493     699     701     907
        0   40101   10101   20101   30101

      701     494     700     702     908
        0   40101   10101   20101   30101

      702     495     701     703     909
        0   40101   10101   20101   30101

      703     496     702     704     910
        0   40101   10101   20101   30101

      704     497     703     705     911
        0   40101   10101   20101   30101

      705     498     704     706     912
        0   40101   10101   20101   30101

      706     499     705     707     913
        0   40101   10101   20101   30101

      707     500     706     708     914
        0   40101   10101   20101   30101

      708     501     707     709     915
        0   40101   10101   20101   30101

      709     502     708     710     916
        0   40101   10101   20101   30101

      710     503     709     711     917
        0   40101   10101   20101   30101

      711     504     710     712     918
        0   40101   10101   20101   30101

      712     505     711     713     919
        0   40101   10101   20101   30101

      713     506     712     714     920
        0   40101   10101   20101   30101

      714     507     713     715     921
        0   40101   10101   20101   30101

      715     508     714     716     922
        0   40101   10101   20101   30101

      716     509     715     717     923
        0   40101   10101   20101   30101

      717     510     716     718     924
        0   40101   10101   20101   30101

      718     511     717     719     925
        0   40101   10101   20101   30101

      719     512     718     720     926
        0   40101   10101   20101   30101

      720     513     719     721     927
        0   40101   10101   20101   30101

      721     514     720     722     928
        0   40101   10101   20101   30101

      722     515     721     723     929
        0   40101   10101   20101   30101

      723     516     722     724     930
        0   40101   10101   20101   30101

      724     517     723     725     931
        0   40101   10101   20101   30101

      725     518     724     726     932
        0   40101   10101   20101   30101

      726     519     725     727     933
        0   40101   10101   20101   30101

      727     520     726     728     934
        0   40101   10101   20101   30101

      728     521     727     729     935
        0   40101   10101   20101   30101

      729     522     728     730     936
        0   40101   10101   20101   30101

      730     523     729     731     937
        0   40101   10101   20101   30101

      731     524     730     732     938
        0   40101   10101   20101   30101

      732     525     731     733     939
        0   40101   10101   20101   30101

      733     526     732     734     940
        0   40101   10101   20101   30101

      734     527     733     735     941
        0   40101   10101   20101   30101

      735     528     734     736     942
        0   40101   10101   20101   30101

      736     529     735     737     943
        0   40101   10101   20101   30101

      737     530     736     738     944
        0   40101   10101   20101   30101

      738     531     737     739     945
        0   40101   10101   20101   30101

      739     532     738     740     946
        0   40101   10101   20101   30101

      740     533     739     741     947
        0   40101   10101   20101   30101

      741     534     740     742     948
        0   40101   10101   20101   30101

      742     535     741     743     949
        0   40101   10101   20101   30101

      743     536     742     744     950
        0   40101   10101   20101   30101

      744     537     743     745     951
        0   40101   10101   20101   30101

      745     538     744     746     952
        0   40101   10101   20101   30101

      746     539     745     747     953
        0   40101   10101   20101   30101

      747     540     746     748     954
        0   40101   10101   20101   30101

      748     541     747     749     955
        0   40101   10101   20101   30101

      749     542     748     750     956
        0   40101   10101   20101   30101

      750     543     749     751     957
        0   40101   10101   20101   30101

      751     544     750     752     958
        0   40101   10101   20101   30101

      752     545     751     753     959
        0   40101   10101   20101   30101

      753     546     752     754     960
        0   40101   10101   20101   30101

      754     547     753     755     961
        0   40101   10101   20101   30101

      755     548     754     756     962
        0   40101   10101   20101   30101

      756     549     755     757     963
        0   40101   10101   20101   30101

      757     550     756     758     964
        0   40101   10101   20101   30101

      758     551     757     759     965
        0   40101   10101   20101   30101

      759     552     758     760     966
        0   40101   10101   20101   30101

      760     553     759     761     967
        0   40101   10101   20101   30101

      761     554     760     762     968
        0   40101   10101   20101   30101

      762     555     761     763     969
        0   40101   10101   20101   30101

      763     556     762     764     970
        0   40101   10101   20101   30101

      764     557     763     765     971
        0   40101   10101   20101   30101

      765     558     764     766     972
        0   40101   10101   20101   30101

      766     559     765     767     973
        0   40101   10101   20101   30101

      767     560     766     768     974
        0   40101   10101   20101   30101

      768     561     767     769     975
        0   40101   10101   20101   30101

      769     562     768     770     976
        0   40101   10101   20101   30101

      770     563     769     771     977
        0   40101   10101   20101   30101

      771     564     770     772     978
        0   40101   10101   20101   30101

      772     565     771     773     979
        0   40101   10101   20101   30101

      773     566     772     774     980
        0   40101   10101   20101   30101

      774     567     773     775     981
        0   40101   10101   20101   30101

      775     568     774     776     982
        0   40101   10101   20101   30101

      776     569     775     777     983
        0   40101   10101   20101   30101

      777     570     776     778     984
        0   40101   10101   20101   30101

      778     571     777     779     985
        0   40101   10101   20101   30101

      779     572     778     780     986
        0   40101   10101   20101   30101

      780     573     779     781     987
        0   40101   10101   20101   30101

      781     574     780     782     988
        0   40101   10101   20101   30101

      782     575     781     783     989
        0   40101   10101   20101   30101

      783     576     782     784     990
        0   40101   10101   20101   30101

      784     577     783     785     991
        0   40101   10101   20101   30101

      785     578     784     786     992
        0   40101   10101   20101   30101

      786     579     785     787     993
        0   40101   10101   20101   30101

      787     580     786     788     994
        0   40101   10101   20101   30101

      788     581     787     789     995
        0   40101   10101   20101   30101

      789     582     788     790     996
        0   40101   10101   20101   30101

      790     583     789     791     997
        0   40101   10101   20101   30101

      791     584     790     792     998
        0   40101   10101   20101   30101

      792     585     791     793     999
        0   40101   10101   20101   30101

      793     586     792     794    1000
        0   40101   10101   20101   30101

      794     587     793     795    1001
        0   40101   10101   20101   30101

      795     588     794     796    1002
        0   40101   10101   20101   30101

      796     589     795     797    1003
        0   40101   10101   20101   30101

      797     590     796     798    1004
        0   40101   10101   20101   30101

      798     591     797     799    1005
        0   40101   10101   20101   30101

      799     592     798     800    1006
        0   40101   10101   20101   30101

      800     593     799     801    1007
        0   40101   10101   20101   30101

      801     594     800     802    1008
        0   40101   10101   20101   30101

      802     595     801     803    1009
        0   40101   10101   20101   30101

      803     596     802     804    1010
        0   40101   10101   20101   30101

      804     597     803     805    1011
        0   40101   10101   20101   30101

      805     598     804     806    1012
        0   40101   10101   20101   30101

      806     599     805     807    1013
        0   40101   10101   20101   30101

      807     600     806     808    1014
        0   40101   10101   20101   30101

      808     601     807     809    1015
        0   40101   10101   20101   30101

      809     602     808     810    1016
        0   40101   10101   20101   30101

      810     603     809     811    1017
        0   40101   10101   20101   30101

      811     604     810     812    1018
        0   40101   10101   20101   30101

      812     605     811     813    1019
        0   40101   10101   20101   30101

      813     606     812     814    1020
        0   40101   10101   20101   30101

      814     607     813     815    1021
        0   40101   10101   20101   30101

      815     608     814     816    1022
        0   40101   10101   20101   30101

      816     609     815     817    1023
        0   40101   10101   20101   30101

      817     610     816     818    1024
        0   40101   10101   20101   30101

      818     611     817     819    1025
        0   40101   10101   20101   30101

      819     612     818     820    1026
        0   40101   10101   20101   30101

      820     613     819     821    1027
        0   40101   10101   20101   30101

      821     614     820     822    1028
        0   40101   10101   20101   30101

      822     615     821     823    1029
        0   40101   10101   20101   30101

      823     616     822     824    1030
        0   40101   10101   20101   30101

      824     617     823     825    1031
        0   40101   10101   20101   30101

      825     618     824     826    1032
        0   40101   10101   20101   30101

      826     619     825     827    1033
        0   40101   10101   20101   30101

      827     620     826     828    1034
        0   40101   10101   20101   30101

      828     621     827    1035
        0   40101   10101   30101

      829     622     830    1036
        0   40101   20101   30101

      830     623     829     831    1037
        0   40101   10101   20101   30101

      831     624     830     832    1038
        0   40101   10101   20101   30101

      832     625     831     833    1039
        0   40101   10101   20101   30101

      833     626     832     834    1040
        0   40101   10101   20101   30101

      834     627     833     835    1041
        0   40101   10101   20101   30101

      835     628     834     836    1042
        0   40101   10101   20101   30101

      836     629     835     837    1043
        0   40101   10101   20101   30101

      837     630     836     838    1044
        0   40101   10101   20101   30101

      838     631     837     839    1045
        0   40101   10101   20101   30101

      839     632     838     840    1046
        0   40101   10101   20101   30101

      840     633     839     841    1047
        0   40101   10101   20101   30101

      841     634     840     842    1048
        0   40101   10101   20101   30101

      842     635     841     843    1049
        0   40101   10101   20101   30101

      843     636     842     844    1050
        0   40101   10101   20101   30101

      844     637     843     845    1051
        0   40101   10101   20101   30101

      845     638     844     846    1052
        0   40101   10101   20101   30101

      846     639     845     847    1053
        0   40101   10101   20101   30101

      847     640     846     848    1054
        0   40101   10101   20101   30101

      848     641     847     849    1055
        0   40101   10101   20101   30101

      849     642     848     850    1056
        0   40101   10101   20101   30101

      850     643     849     851    1057
        0   40101   10101   20101   30101

      851     644     850     852    1058
        0   40101   10101   20101   30101

      852     645     851     853    1059
        0   40101   10101   20101   30101

      853     646     852     854    1060
        0   40101   10101   20101   30101

      854     647     853     855    1061
        0   40101   10101   20101   30101

      855     648     854     856    1062
        0   40101   10101   20101   30101

      856     649     855     857    1063
        0   40101   10101   20101   30101

      857     650     856     858    1064
        0   40101   10101   20101   30101

      858     651     857     859    1065
        0   40101   10101   20101   30101

      859     652     858     860    1066
        0   40101   10101   20101   30101

      860     653     859     861    1067
        0   40101   10101   20101   30101

      861     654     860     862    1068
        0   40101   10101   20101   30101

      862     655     861     863    1069
        0   40101   10101   20101   30101

      863     656     862     864    1070
        0   40101   10101   20101   30101

      864     657     863     865    1071
        0   40101   10101   20101   30101

      865     658     864     866    1072
        0   40101   10101   20101   30101

      866     659     865     867    1073
        0   40101   10101   20101   30101

      867     660     866     868    1074
        0   40101   10101   20101   30101

      868     661     867     869    1075
        0   40101   10101   20101   30101

      869     662     868     870    1076
        0   40101   10101   20101   30101

      870     663     869     871    1077
        0   40101   10101   20101   30101

      871     664     870     872    1078
        0   40101   10101   20101   30101

      872     665     871     873    1079
        0   40101   10101   20101   30101

      873     666     872     874    1080
        0   40101   10101   20101   30101

      874     667     873     875    1081
        0   40101   10101   20101   30101

      875     668     874     876    1082
        0   40101   10101   20101   30101

      876     669     875     877    1083
        0   40101   10101   20101   30101

      877     670     876     878    1084
        0   40101   10101   20101   30101

      878     671     877     879    1085
        0   40101   10101   20101   30101

      879     672     878     880    1086
        0   40101   10101   20101   30101

      880     673     879     881    1087
        0   40101   10101   20101   30101

      881     674     880     882    1088
        0   40101   10101   20101   30101

      882     675     881     883    1089
        0   40101   10101   20101   30101

      883     676     882     884    1090
        0   40101   10101   20101   30101

      884     677     883     885    1091
        0   40101   10101   20101   30101

      885     678     884     886    1092
        0   40101   10101   20101   30101

      886     679     885     887    1093
        0   40101   10101   20101   30101

      887     680     886     888    1094
        0   40101   10101   20101   30101

      888     681     887     889    1095
        0   40101   10101   20101   30101

      889     682     888     890    1096
        0   40101   10101   20101   30101

      890     683     889     891    1097
        0   40101   10101   20101   30101

      891     684     890     892    1098
        0   40101   10101   20101   30101

      892     685     891     893    1099
        0   40101   10101   20101   30101

      893     686     892     894    1100
        0   40101   10101   20101   30101

      894     687     893     895    1101
        0   40101   10101   20101   30101

      895     688     894     896    1102
        0   40101   10101   20101   30101

      896     689     895     897    1103
        0   40101   10101   20101   30101

      897     690     896     898    1104
        0   40101   10101   20101   30101

      898     691     897     899    1105
        0   40101   10101   20101   30101

      899     692     898     900    1106
        0   40101   10101   20101   30101

      900     693     899     901    1107
        0   40101   10101   20101   30101

      901     694     900     902    1108
        0   40101   10101   20101   30101

      902     695     901     903    1109
        0   40101   10101   20101   30101

      903     696     902     904    1110
        0   40101   10101   20101   30101

      904     697     903     905    1111
        0   40101   10101   20101   30101

      905     698     904     906    1112
        0   40101   10101   20101   30101

      906     699     905     907    1113
        0   40101   10101   20101   30101

      907     700     906     908    1114
        0   40101   10101   20101   30101

      908     701     907     909    1115
        0   40101   10101   20101   30101

      909     702     908     910    1116
        0   40101   10101   20101   30101

      910     703     909     911    1117
        0   40101   10101   20101   30101

      911     704     910     912    1118
        0   40101   10101   20101   30101

      912     705     911     913    1119
        0   40101   10101   20101   30101

      913     706     912     914    1120
        0   40101   10101   20101   30101

      914     707     913     915    1121
        0   40101   10101   20101   30101

      915     708     914     916    1122
        0   40101   10101   20101   30101

      916     709     915     917    1123
        0   40101   10101   20101   30101

      917     710     916     918    1124
        0   40101   10101   20101   30101

      918     711     917     919    1125
        0   40101   10101   20101   30101

      919     712     918     920    1126
        0   40101   10101   20101   30101

      920     713     919     921    1127
        0   40101   10101   20101   30101

      921     714     920     922    1128
        0   40101   10101   20101   30101

      922     715     921     923    1129
        0   40101   10101   20101   30101

      923     716     922     924    1130
        0   40101   10101   20101   30101

      924     717     923     925    1131
        0   40101   10101   20101   30101

      925     718     924     926    1132
        0   40101   10101   20101   30101

      926     719     925     927    1133
        0   40101   10101   20101   30101

      927     720     926     928    1134
        0   40101   10101   20101   30101

      928     721     927     929    1135
        0   40101   10101   20101   30101

      929     722     928     930    1136
        0   40101   10101   20101   30101

      930     723     929     931    1137
        0   40101   10101   20101   30101

      931     724     930     932    1138
        0   40101   10101   20101   30101

      932     725     931     933    1139
        0   40101   10101   20101   30101

      933     726     932     934    1140
        0   40101   10101   20101   30101

      934     727     933     935    1141
        0   40101   10101   20101   30101

      935     728     934     936    1142
        0   40101   10101   20101   30101

      936     729     935     937    1143
        0   40101   10101   20101   30101

      937     730     936     938    1144
        0   40101   10101   20101   30101

      938     731     937     939    1145
        0   40101   10101   20101   30101

      939     732     938     940    1146
        0   40101   10101   20101   30101

      940     733     939     941    1147
        0   40101   10101   20101   30101

      941     734     940     942    1148
        0   40101   10101   20101   30101

      942     735     941     943    1149
        0   40101   10101   20101   30101

      943     736     942     944    1150
        0   40101   10101   20101   30101

      944     737     943     945    1151
        0   40101   10101   20101   30101

      945     738     944     946    1152
        0   40101   10101   20101   30101

      946     739     945     947    1153
        0   40101   10101   20101   30101

      947     740     946     948    1154
        0   40101   10101   20101   30101

      948     741     947     949    1155
        0   40101   10101   20101   30101

      949     742     948     950    1156
        0   40101   10101   20101   30101

      950     743     949     951    1157
        0   40101   10101   20101   30101

      951     744     950     952    1158
        0   40101   10101   20101   30101

      952     745     951     953    1159
        0   40101   10101   20101   30101

      953     746     952     954    1160
        0   40101   10101   20101   30101

      954     747     953     955    1161
        0   40101   10101   20101   30101

      955     748     954     956    1162
        0   40101   10101   20101   30101

      956     749     955     957    1163
        0   40101   10101   20101   30101

      957     750     956     958    1164
        0   40101   10101   20101   30101

      958     751     957     959    1165
        0   40101   10101   20101   30101

      959     752     958     960    1166
        0   40101   10101   20101   30101

      960     753     959     961    1167
        0   40101   10101   20101   30101

      961     754     960     962    1168
        0   40101   10101   20101   30101

      962     755     961     963    1169
        0   40101   10101   20101   30101

      963     756     962     964    1170
        0   40101   10101   20101   30101

      964     757     963     965    1171
        0   40101   10101   20101   30101

      965     758     964     966    1172
        0   40101   10101   20101   30101

      966     759     965     967    1173
        0   40101   10101   20101   30101

      967     760     966     968    1174
        0   40101   10101   20101   30101

      968     761     967     969    1175
        0   40101   10101   20101   30101

      969     762     968     970    1176
        0   40101   10101   20101   30101

      970     763     969     971    1177
        0   40101   10101   20101   30101

      971     764     970     972    1178
        0   40101   10101   20101   30101

      972     765     971     973    1179
        0   40101   10101   20101   30101

      973     766     972     974    1180
        0   40101   10101   20101   30101

      974     767     973     975    1181
        0   40101   10101   20101   30101

      975     768     974     976    1182
[...]

    32235   32028   32234   32236   32442
        0   40101   10101   20101   30101

    32236   32029   32235   32237   32443
        0   40101   10101   20101   30101

    32237   32030   32236   32238   32444
        0   40101   10101   20101   30101

    32238   32031   32237   32239   32445
        0   40101   10101   20101   30101

    32239   32032   32238   32240   32446
        0   40101   10101   20101   30101

    32240   32033   32239   32241   32447
        0   40101   10101   20101   30101

    32241   32034   32240   32242   32448
        0   40101   10101   20101   30101

    32242   32035   32241   32243   32449
        0   40101   10101   20101   30101

    32243   32036   32242   32244   32450
        0   40101   10101   20101   30101

    32244   32037   32243   32245   32451
        0   40101   10101   20101   30101

    32245   32038   32244   32246   32452
        0   40101   10101   20101   30101

    32246   32039   32245   32247   32453
        0   40101   10101   20101   30101

    32247   32040   32246   32248   32454
        0   40101   10101   20101   30101

    32248   32041   32247   32249   32455
        0   40101   10101   20101   30101

    32249   32042   32248   32250   32456
        0   40101   10101   20101   30101

    32250   32043   32249   32251   32457
        0   40101   10101   20101   30101

    32251   32044   32250   32252   32458
        0   40101   10101   20101   30101

    32252   32045   32251   32253   32459
        0   40101   10101   20101   30101

    32253   32046   32252   32254   32460
        0   40101   10101   20101   30101

    32254   32047   32253   32255   32461
        0   40101   10101   20101   30101

    32255   32048   32254   32256   32462
        0   40101   10101   20101   30101

    32256   32049   32255   32257   32463
        0   40101   10101   20101   30101

    32257   32050   32256   32258   32464
        0   40101   10101   20101   30101

    32258   32051   32257   32259   32465
        0   40101   10101   20101   30101

    32259   32052   32258   32260   32466
        0   40101   10101   20101   30101

    32260   32053   32259   32261   32467
        0   40101   10101   20101   30101

    32261   32054   32260   32262   32468
        0   40101   10101   20101   30101

    32262   32055   32261   32263   32469
        0   40101   10101   20101   30101

    32263   32056   32262   32264   32470
        0   40101   10101   20101   30101

    32264   32057   32263   32265   32471
        0   40101   10101   20101   30101

    32265   32058   32264   32266   32472
        0   40101   10101   20101   30101

    32266   32059   32265   32267   32473
        0   40101   10101   20101   30101

    32267   32060   32266   32268   32474
        0   40101   10101   20101   30101

    32268   32061   32267   32269   32475
        0   40101   10101   20101   30101

    32269   32062   32268   32270   32476
        0   40101   10101   20101   30101

    32270   32063   32269   32271   32477
        0   40101   10101   20101   30101

    32271   32064   32270   32272   32478
        0   40101   10101   20101   30101

    32272   32065   32271   32273   32479
        0   40101   10101   20101   30101

    32273   32066   32272   32274   32480
        0   40101   10101   20101   30101

    32274   32067   32273   32275   32481
        0   40101   10101   20101   30101

    32275   32068   32274   32276   32482
        0   40101   10101   20101   30101

    32276   32069   32275   32277   32483
        0   40101   10101   20101   30101

    32277   32070   32276   32278   32484
        0   40101   10101   20101   30101

    32278   32071   32277   32279   32485
        0   40101   10101   20101   30101

    32279   32072   32278   32280   32486
        0   40101   10101   20101   30101

    32280   32073   32279   32281   32487
        0   40101   10101   20101   30101

    32281   32074   32280   32282   32488
        0   40101   10101   20101   30101

    32282   32075   32281   32283   32489
        0   40101   10101   20101   30101

    32283   32076   32282   32284   32490
        0   40101   10101   20101   30101

    32284   32077   32283   32285   32491
        0   40101   10101   20101   30101

    32285   32078   32284   32286   32492
        0   40101   10101   20101   30101

    32286   32079   32285   32287   32493
        0   40101   10101   20101   30101

    32287   32080   32286   32288   32494
        0   40101   10101   20101   30101

    32288   32081   32287   32289   32495
        0   40101   10101   20101   30101

    32289   32082   32288   32290   32496
        0   40101   10101   20101   30101

    32290   32083   32289   32291   32497
        0   40101   10101   20101   30101

    32291   32084   32290   32292   32498
        0   40101   10101   20101   30101

    32292   32085   32291   32499
        0   40101   10101   30101

    32293   32086   32294
        0   40101   20101

    32294   32087   32293   32295
        0   40101   10101   20101

    32295   32088   32294   32296
        0   40101   10101   20101

    32296   32089   32295   32297
        0   40101   10101   20101

    32297   32090   32296   32298
        0   40101   10101   20101

    32298   32091   32297   32299
        0   40101   10101   20101

    32299   32092   32298   32300
        0   40101   10101   20101

    32300   32093   32299   32301
        0   40101   10101   20101

    32301   32094   32300   32302
        0   40101   10101   20101

    32302   32095   32301   32303
        0   40101   10101   20101

    32303   32096   32302   32304
        0   40101   10101   20101

    32304   32097   32303   32305
        0   40101   10101   20101

    32305   32098   32304   32306
        0   40101   10101   20101

    32306   32099   32305   32307
        0   40101   10101   20101

    32307   32100   32306   32308
        0   40101   10101   20101

    32308   32101   32307   32309
        0   40101   10101   20101

    32309   32102   32308   32310
        0   40101   10101   20101

    32310   32103   32309   32311
        0   40101   10101   20101

    32311   32104   32310   32312
        0   40101   10101   20101

    32312   32105   32311   32313
        0   40101   10101   20101

    32313   32106   32312   32314
        0   40101   10101   20101

    32314   32107   32313   32315
        0   40101   10101   20101

    32315   32108   32314   32316
        0   40101   10101   20101

    32316   32109   32315   32317
        0   40101   10101   20101

    32317   32110   32316   32318
        0   40101   10101   20101

    32318   32111   32317   32319
        0   40101   10101   20101

    32319   32112   32318   32320
        0   40101   10101   20101

    32320   32113   32319   32321
        0   40101   10101   20101

    32321   32114   32320   32322
        0   40101   10101   20101

    32322   32115   32321   32323
        0   40101   10101   20101

    32323   32116   32322   32324
        0   40101   10101   20101

    32324   32117   32323   32325
        0   40101   10101   20101

    32325   32118   32324   32326
        0   40101   10101   20101

    32326   32119   32325   32327
        0   40101   10101   20101

    32327   32120   32326   32328
        0   40101   10101   20101

    32328   32121   32327   32329
        0   40101   10101   20101

    32329   32122   32328   32330
        0   40101   10101   20101

    32330   32123   32329   32331
        0   40101   10101   20101

    32331   32124   32330   32332
        0   40101   10101   20101

    32332   32125   32331   32333
        0   40101   10101   20101

    32333   32126   32332   32334
        0   40101   10101   20101

    32334   32127   32333   32335
        0   40101   10101   20101

    32335   32128   32334   32336
        0   40101   10101   20101

    32336   32129   32335   32337
        0   40101   10101   20101

    32337   32130   32336   32338
        0   40101   10101   20101

    32338   32131   32337   32339
        0   40101   10101   20101

    32339   32132   32338   32340
        0   40101   10101   20101

    32340   32133   32339   32341
        0   40101   10101   20101

    32341   32134   32340   32342
        0   40101   10101   20101

    32342   32135   32341   32343
        0   40101   10101   20101

    32343   32136   32342   32344
        0   40101   10101   20101

    32344   32137   32343   32345
        0   40101   10101   20101

    32345   32138   32344   32346
        0   40101   10101   20101

    32346   32139   32345   32347
        0   40101   10101   20101

    32347   32140   32346   32348
        0   40101   10101   20101

    32348   32141   32347   32349
        0   40101   10101   20101

    32349   32142   32348   32350
        0   40101   10101   20101

    32350   32143   32349   32351
        0   40101   10101   20101

    32351   32144   32350   32352
        0   40101   10101   20101

    32352   32145   32351   32353
        0   40101   10101   20101

    32353   32146   32352   32354
        0   40101   10101   20101

    32354   32147   32353   32355
        0   40101   10101   20101

    32355   32148   32354   32356
        0   40101   10101   20101

    32356   32149   32355   32357
        0   40101   10101   20101

    32357   32150   32356   32358
        0   40101   10101   20101

    32358   32151   32357   32359
        0   40101   10101   20101

    32359   32152   32358   32360
        0   40101   10101   20101

    32360   32153   32359   32361
        0   40101   10101   20101

    32361   32154   32360   32362
        0   40101   10101   20101

    32362   32155   32361   32363
        0   40101   10101   20101

    32363   32156   32362   32364
        0   40101   10101   20101

    32364   32157   32363   32365
        0   40101   10101   20101

    32365   32158   32364   32366
        0   40101   10101   20101

    32366   32159   32365   32367
        0   40101   10101   20101

    32367   32160   32366   32368
        0   40101   10101   20101

    32368   32161   32367   32369
        0   40101   10101   20101

    32369   32162   32368   32370
        0   40101   10101   20101

    32370   32163   32369   32371
        0   40101   10101   20101

    32371   32164   32370   32372
        0   40101   10101   20101

    32372   32165   32371   32373
        0   40101   10101   20101

    32373   32166   32372   32374
        0   40101   10101   20101

    32374   32167   32373   32375
        0   40101   10101   20101

    32375   32168   32374   32376
        0   40101   10101   20101

    32376   32169   32375   32377
        0   40101   10101   20101

    32377   32170   32376   32378
        0   40101   10101   20101

    32378   32171   32377   32379
        0   40101   10101   20101

    32379   32172   32378   32380
        0   40101   10101   20101

    32380   32173   32379   32381
        0   40101   10101   20101

    32381   32174   32380   32382
        0   40101   10101   20101

    32382   32175   32381   32383
        0   40101   10101   20101

    32383   32176   32382   32384
        0   40101   10101   20101

    32384   32177   32383   32385
        0   40101   10101   20101

    32385   32178   32384   32386
        0   40101   10101   20101

    32386   32179   32385   32387
        0   40101   10101   20101

    32387   32180   32386   32388
        0   40101   10101   20101

    32388   32181   32387   32389
        0   40101   10101   20101

    32389   32182   32388   32390
        0   40101   10101   20101

    32390   32183   32389   32391
        0   40101   10101   20101

    32391   32184   32390   32392
        0   40101   10101   20101

    32392   32185   32391   32393
        0   40101   10101   20101

    32393   32186   32392   32394
        0   40101   10101   20101

    32394   32187   32393   32395
        0   40101   10101   20101

    32395   32188   32394   32396
        0   40101   10101   20101

    32396   32189   32395   32397
        0   40101   10101   20101

    32397   32190   32396   32398
        0   40101   10101   20101

    32398   32191   32397   32399
        0   40101   10101   20101

    32399   32192   32398   32400
        0   40101   10101   20101

    32400   32193   32399   32401
        0   40101   10101   20101

    32401   32194   32400   32402
        0   40101   10101   20101

    32402   32195   32401   32403
        0   40101   10101   20101

    32403   32196   32402   32404
        0   40101   10101   20101

    32404   32197   32403   32405
        0   40101   10101   20101

    32405   32198   32404   32406
        0   40101   10101   20101

    32406   32199   32405   32407
        0   40101   10101   20101

    32407   32200   32406   32408
        0   40101   10101   20101

    32408   32201   32407   32409
        0   40101   10101   20101

    32409   32202   32408   32410
        0   40101   10101   20101

    32410   32203   32409   32411
        0   40101   10101   20101

    32411   32204   32410   32412
        0   40101   10101   20101

    32412   32205   32411   32413
        0   40101   10101   20101

    32413   32206   32412   32414
        0   40101   10101   20101

    32414   32207   32413   32415
        0   40101   10101   20101

    32415   32208   32414   32416
        0   40101   10101   20101

    32416   32209   32415   32417
        0   40101   10101   20101

    32417   32210   32416   32418
        0   40101   10101   20101

    32418   32211   32417   32419
        0   40101   10101   20101

    32419   32212   32418   32420
        0   40101   10101   20101

    32420   32213   32419   32421
        0   40101   10101   20101

    32421   32214   32420   32422
        0   40101   10101   20101

    32422   32215   32421   32423
        0   40101   10101   20101

    32423   32216   32422   32424
        0   40101   10101   20101

    32424   32217   32423   32425
        0   40101   10101   20101

    32425   32218   32424   32426
        0   40101   10101   20101

    32426   32219   32425   32427
        0   40101   10101   20101

    32427   32220   32426   32428
        0   40101   10101   20101

    32428   32221   32427   32429
        0   40101   10101   20101

    32429   32222   32428   32430
        0   40101   10101   20101

    32430   32223   32429   32431
        0   40101   10101   20101

    32431   32224   32430   32432
        0   40101   10101   20101

    32432   32225   32431   32433
        0   40101   10101   20101

    32433   32226   32432   32434
        0   40101   10101   20101

    32434   32227   32433   32435
        0   40101   10101   20101

    32435   32228   32434   32436
        0   40101   10101   20101

    32436   32229   32435   32437
        0   40101   10101   20101

    32437   32230   32436   32438
        0   40101   10101   20101

    32438   32231   32437   32439
        0   40101   10101   20101

    32439   32232   32438   32440
        0   40101   10101   20101

    32440   32233   32439   32441
        0   40101   10101   20101

    32441   32234   32440   32442
        0   40101   10101   20101

    32442   32235   32441   32443
        0   40101   10101   20101

    32443   32236   32442   32444
        0   40101   10101   20101

    32444   32237   32443   32445
        0   40101   10101   20101

    32445   32238   32444   32446
        0   40101   10101   20101

    32446   32239   32445   32447
        0   40101   10101   20101

    32447   32240   32446   32448
        0   40101   10101   20101

    32448   32241   32447   32449
        0   40101   10101   20101

    32449   32242   32448   32450
        0   40101   10101   20101

    32450   32243   32449   32451
        0   40101   10101   20101

    32451   32244   32450   32452
        0   40101   10101   20101

    32452   32245   32451   32453
        0   40101   10101   20101

    32453   32246   32452   32454
        0   40101   10101   20101

    32454   32247   32453   32455
        0   40101   10101   20101

    32455   32248   32454   32456
        0   40101   10101   20101

    32456   32249   32455   32457
        0   40101   10101   20101

    32457   32250   32456   32458
        0   40101   10101   20101

    32458   32251   32457   32459
        0   40101   10101   20101

    32459   32252   32458   32460
        0   40101   10101   20101

    32460   32253   32459   32461
        0   40101   10101   20101

    32461   32254   32460   32462
        0   40101   10101   20101

    32462   32255   32461   32463
        0   40101   10101   20101

    32463   32256   32462   32464
        0   40101   10101   20101

    32464   32257   32463   32465
        0   40101   10101   20101

    32465   32258   32464   32466
        0   40101   10101   20101

    32466   32259   32465   32467
        0   40101   10101   20101

    32467   32260   32466   32468
        0   40101   10101   20101

    32468   32261   32467   32469
        0   40101   10101   20101

    32469   32262   32468   32470
        0   40101   10101   20101

    32470   32263   32469   32471
        0   40101   10101   20101

    32471   32264   32470   32472
        0   40101   10101   20101

    32472   32265   32471   32473
        0   40101   10101   20101

    32473   32266   32472   32474
        0   40101   10101   20101

    32474   32267   32473   32475
        0   40101   10101   20101

    32475   32268   32474   32476
        0   40101   10101   20101

    32476   32269   32475   32477
        0   40101   10101   20101

    32477   32270   32476   32478
        0   40101   10101   20101

    32478   32271   32477   32479
        0   40101   10101   20101

    32479   32272   32478   32480
        0   40101   10101   20101

    32480   32273   32479   32481
        0   40101   10101   20101

    32481   32274   32480   32482
        0   40101   10101   20101

    32482   32275   32481   32483
        0   40101   10101   20101

    32483   32276   32482   32484
        0   40101   10101   20101

    32484   32277   32483   32485
        0   40101   10101   20101

    32485   32278   32484   32486
        0   40101   10101   20101

    32486   32279   32485   32487
        0   40101   10101   20101

    32487   32280   32486   32488
        0   40101   10101   20101

    32488   32281   32487   32489
        0   40101   10101   20101

    32489   32282   32488   32490
        0   40101   10101   20101

    32490   32283   32489   32491
        0   40101   10101   20101

    32491   32284   32490   32492
        0   40101   10101   20101

    32492   32285   32491   32493
        0   40101   10101   20101

    32493   32286   32492   32494
        0   40101   10101   20101

    32494   32287   32493   32495
        0   40101   10101   20101

    32495   32288   32494   32496
        0   40101   10101   20101

    32496   32289   32495   32497
        0   40101   10101   20101

    32497   32290   32496   32498
        0   40101   10101   20101

    32498   32291   32497   32499
        0   40101   10101   20101

    32499   32292   32498
        0   40101   10101

Allocate budget reader component.
Open budget file in budget reader.
Allocate head reader component.
Open head file in head reader component.
Allocate MODPATH basic data component.
Read MODPATH basic data component.
Read the remainder of the MODPATH simulation data component.
Allocate particle tracking engine component.
Compute range of time steps. Prepare for time step loop                                                                             
Begin TIME_STEP_LOOP
Compute TSMAX                                                                                                                       
Begin TRACKING_INTERVAL_LOOP
Exit TRACKING_INTERVAL_LOOP
Exit TIME_STEP_LOOP
Write endpoint file.
Consolidating pathline segments.
Begin memory deallocation.
Memory deallocation complete.
